<?xml version="1.0" encoding="UTF-8"?>
<module type="PYTHON_MODULE" version="4">
  <component name="FacetManager">
    <facet type="django" name="Django">
      <configuration>
        <option name="rootFolder" value="$MODULE_DIR$" />
        <option name="settingsModule" value="Web_Backend/settings.py" />
        <option name="manageScript" value="$MODULE_DIR$/manage.py" />
        <option name="environment" value="&lt;map/&gt;" />
        <option name="doNotUseTestRunner" value="false" />
        <option name="trackFilePattern" value="migrations" />
      </configuration>
    </facet>
  </component>
  <component name="NewModuleRootManager">
    <content url="file://$MODULE_DIR$">
      <excludeFolder url="file://$MODULE_DIR$/.venv" />
      <excludeFolder url="file://$MODULE_DIR$/Data/Admin/Run/Run/MODFLOW/第100应力期" />
      <excludeFolder url="file://$MODULE_DIR$/Data/Admin/Run/Run/MODFLOW/第101应力期" />
      <excludeFolder url="file://$MODULE_DIR$/Data/Admin/Run/Run/MODFLOW/第102应力期" />
      <excludeFolder url="file://$MODULE_DIR$/Data/Admin/Run/Run/MODFLOW/第103应力期" />
      <excludeFolder url="file://$MODULE_DIR$/Data/Admin/Run/Run/MODFLOW/第104应力期" />
      <excludeFolder url="file://$MODULE_DIR$/Data/Admin/Run/Run/MODFLOW/第105应力期" />
      <excludeFolder url="file://$MODULE_DIR$/Data/Admin/Run/Run/MODFLOW/第106应力期" />
      <excludeFolder url="file://$MODULE_DIR$/Data/Admin/Run/Run/MODFLOW/第107应力期" />
      <excludeFolder url="file://$MODULE_DIR$/Data/Admin/Run/Run/MODFLOW/第108应力期" />
      <excludeFolder url="file://$MODULE_DIR$/Data/Admin/Run/Run/MODFLOW/第109应力期" />
      <excludeFolder url="file://$MODULE_DIR$/Data/Admin/Run/Run/MODFLOW/第110应力期" />
      <excludeFolder url="file://$MODULE_DIR$/Data/Admin/Run/Run/MODFLOW/第111应力期" />
      <excludeFolder url="file://$MODULE_DIR$/Data/Admin/Run/Run/MODFLOW/第112应力期" />
      <excludeFolder url="file://$MODULE_DIR$/Data/Admin/Run/Run/MODFLOW/第113应力期" />
      <excludeFolder url="file://$MODULE_DIR$/Data/Admin/Run/Run/MODFLOW/第114应力期" />
      <excludeFolder url="file://$MODULE_DIR$/Data/Admin/Run/Run/MODFLOW/第115应力期" />
      <excludeFolder url="file://$MODULE_DIR$/Data/Admin/Run/Run/MODFLOW/第116应力期" />
      <excludeFolder url="file://$MODULE_DIR$/Data/Admin/Run/Run/MODFLOW/第117应力期" />
      <excludeFolder url="file://$MODULE_DIR$/Data/Admin/Run/Run/MODFLOW/第118应力期" />
      <excludeFolder url="file://$MODULE_DIR$/Data/Admin/Run/Run/MODFLOW/第119应力期" />
      <excludeFolder url="file://$MODULE_DIR$/Data/Admin/Run/Run/MODFLOW/第120应力期" />
      <excludeFolder url="file://$MODULE_DIR$/Data/Admin/Run/Run/MODFLOW/第121应力期" />
      <excludeFolder url="file://$MODULE_DIR$/Data/Admin/Run/Run/MODFLOW/第122应力期" />
      <excludeFolder url="file://$MODULE_DIR$/Data/Admin/Run/Run/MODFLOW/第123应力期" />
      <excludeFolder url="file://$MODULE_DIR$/Data/Admin/Run/Run/MODFLOW/第124应力期" />
      <excludeFolder url="file://$MODULE_DIR$/Data/Admin/Run/Run/MODFLOW/第125应力期" />
      <excludeFolder url="file://$MODULE_DIR$/Data/Admin/Run/Run/MODFLOW/第126应力期" />
      <excludeFolder url="file://$MODULE_DIR$/Data/Admin/Run/Run/MODFLOW/第127应力期" />
      <excludeFolder url="file://$MODULE_DIR$/Data/Admin/Run/Run/MODFLOW/第128应力期" />
      <excludeFolder url="file://$MODULE_DIR$/Data/Admin/Run/Run/MODFLOW/第129应力期" />
      <excludeFolder url="file://$MODULE_DIR$/Data/Admin/Run/Run/MODFLOW/第130应力期" />
      <excludeFolder url="file://$MODULE_DIR$/Data/Admin/Run/Run/MODFLOW/第131应力期" />
      <excludeFolder url="file://$MODULE_DIR$/Data/Admin/Run/Run/MODFLOW/第132应力期" />
      <excludeFolder url="file://$MODULE_DIR$/Data/Admin/Run/Run/MODFLOW/第133应力期" />
      <excludeFolder url="file://$MODULE_DIR$/Data/Admin/Run/Run/MODFLOW/第134应力期" />
      <excludeFolder url="file://$MODULE_DIR$/Data/Admin/Run/Run/MODFLOW/第135应力期" />
      <excludeFolder url="file://$MODULE_DIR$/Data/Admin/Run/Run/MODFLOW/第136应力期" />
      <excludeFolder url="file://$MODULE_DIR$/Data/Admin/Run/Run/MODFLOW/第137应力期" />
      <excludeFolder url="file://$MODULE_DIR$/Data/Admin/Run/Run/MODFLOW/第138应力期" />
      <excludeFolder url="file://$MODULE_DIR$/Data/Admin/Run/Run/MODFLOW/第139应力期" />
      <excludeFolder url="file://$MODULE_DIR$/Data/Admin/Run/Run/MODFLOW/第140应力期" />
      <excludeFolder url="file://$MODULE_DIR$/Data/Admin/Run/Run/MODFLOW/第141应力期" />
      <excludeFolder url="file://$MODULE_DIR$/Data/Admin/Run/Run/MODFLOW/第142应力期" />
      <excludeFolder url="file://$MODULE_DIR$/Data/Admin/Run/Run/MODFLOW/第143应力期" />
      <excludeFolder url="file://$MODULE_DIR$/Data/Admin/Run/Run/MODFLOW/第144应力期" />
      <excludeFolder url="file://$MODULE_DIR$/Data/Admin/Run/Run/MODFLOW/第145应力期" />
      <excludeFolder url="file://$MODULE_DIR$/Data/Admin/Run/Run/MODFLOW/第146应力期" />
      <excludeFolder url="file://$MODULE_DIR$/Data/Admin/Run/Run/MODFLOW/第147应力期" />
      <excludeFolder url="file://$MODULE_DIR$/Data/Admin/Run/Run/MODFLOW/第148应力期" />
      <excludeFolder url="file://$MODULE_DIR$/Data/Admin/Run/Run/MODFLOW/第149应力期" />
      <excludeFolder url="file://$MODULE_DIR$/Data/Admin/Run/Run/MODFLOW/第150应力期" />
      <excludeFolder url="file://$MODULE_DIR$/Data/Admin/Run/Run/MODFLOW/第151应力期" />
      <excludeFolder url="file://$MODULE_DIR$/Data/Admin/Run/Run/MODFLOW/第152应力期" />
      <excludeFolder url="file://$MODULE_DIR$/Data/Admin/Run/Run/MODFLOW/第153应力期" />
      <excludeFolder url="file://$MODULE_DIR$/Data/Admin/Run/Run/MODFLOW/第154应力期" />
      <excludeFolder url="file://$MODULE_DIR$/Data/Admin/Run/Run/MODFLOW/第155应力期" />
      <excludeFolder url="file://$MODULE_DIR$/Data/Admin/Run/Run/MODFLOW/第156应力期" />
      <excludeFolder url="file://$MODULE_DIR$/Data/Admin/Run/Run/MODFLOW/第157应力期" />
      <excludeFolder url="file://$MODULE_DIR$/Data/Admin/Run/Run/MODFLOW/第158应力期" />
      <excludeFolder url="file://$MODULE_DIR$/Data/Admin/Run/Run/MODFLOW/第159应力期" />
      <excludeFolder url="file://$MODULE_DIR$/Data/Admin/Run/Run/MODFLOW/第160应力期" />
      <excludeFolder url="file://$MODULE_DIR$/Data/Admin/Run/Run/MODFLOW/第161应力期" />
      <excludeFolder url="file://$MODULE_DIR$/Data/Admin/Run/Run/MODFLOW/第162应力期" />
      <excludeFolder url="file://$MODULE_DIR$/Data/Admin/Run/Run/MODFLOW/第163应力期" />
      <excludeFolder url="file://$MODULE_DIR$/Data/Admin/Run/Run/MODFLOW/第164应力期" />
      <excludeFolder url="file://$MODULE_DIR$/Data/Admin/Run/Run/MODFLOW/第165应力期" />
      <excludeFolder url="file://$MODULE_DIR$/Data/Admin/Run/Run/MODFLOW/第166应力期" />
      <excludeFolder url="file://$MODULE_DIR$/Data/Admin/Run/Run/MODFLOW/第167应力期" />
      <excludeFolder url="file://$MODULE_DIR$/Data/Admin/Run/Run/MODFLOW/第168应力期" />
      <excludeFolder url="file://$MODULE_DIR$/Data/Admin/Run/Run/MODFLOW/第169应力期" />
      <excludeFolder url="file://$MODULE_DIR$/Data/Admin/Run/Run/MODFLOW/第170应力期" />
      <excludeFolder url="file://$MODULE_DIR$/Data/Admin/Run/Run/MODFLOW/第171应力期" />
      <excludeFolder url="file://$MODULE_DIR$/Data/Admin/Run/Run/MODFLOW/第172应力期" />
      <excludeFolder url="file://$MODULE_DIR$/Data/Admin/Run/Run/MODFLOW/第173应力期" />
      <excludeFolder url="file://$MODULE_DIR$/Data/Admin/Run/Run/MODFLOW/第174应力期" />
      <excludeFolder url="file://$MODULE_DIR$/Data/Admin/Run/Run/MODFLOW/第175应力期" />
      <excludeFolder url="file://$MODULE_DIR$/Data/Admin/Run/Run/MODFLOW/第176应力期" />
      <excludeFolder url="file://$MODULE_DIR$/Data/Admin/Run/Run/MODFLOW/第177应力期" />
      <excludeFolder url="file://$MODULE_DIR$/Data/Admin/Run/Run/MODFLOW/第178应力期" />
      <excludeFolder url="file://$MODULE_DIR$/Data/Admin/Run/Run/MODFLOW/第179应力期" />
      <excludeFolder url="file://$MODULE_DIR$/Data/Admin/Run/Run/MODFLOW/第180应力期" />
      <excludeFolder url="file://$MODULE_DIR$/Data/Admin/Run/Run/MODFLOW/第181应力期" />
      <excludeFolder url="file://$MODULE_DIR$/Data/Admin/Run/Run/MODFLOW/第182应力期" />
      <excludeFolder url="file://$MODULE_DIR$/Data/Admin/Run/Run/MODFLOW/第183应力期" />
      <excludeFolder url="file://$MODULE_DIR$/Data/Admin/Run/Run/MODFLOW/第184应力期" />
      <excludeFolder url="file://$MODULE_DIR$/Data/Admin/Run/Run/MODFLOW/第185应力期" />
      <excludeFolder url="file://$MODULE_DIR$/Data/Admin/Run/Run/MODFLOW/第186应力期" />
      <excludeFolder url="file://$MODULE_DIR$/Data/Admin/Run/Run/MODFLOW/第187应力期" />
      <excludeFolder url="file://$MODULE_DIR$/Data/Admin/Run/Run/MODFLOW/第188应力期" />
      <excludeFolder url="file://$MODULE_DIR$/Data/Admin/Run/Run/MODFLOW/第189应力期" />
      <excludeFolder url="file://$MODULE_DIR$/Data/Admin/Run/Run/MODFLOW/第190应力期" />
      <excludeFolder url="file://$MODULE_DIR$/Data/Admin/Run/Run/MODFLOW/第191应力期" />
      <excludeFolder url="file://$MODULE_DIR$/Data/Admin/Run/Run/MODFLOW/第192应力期" />
      <excludeFolder url="file://$MODULE_DIR$/Data/Admin/Run/Run/MODFLOW/第193应力期" />
      <excludeFolder url="file://$MODULE_DIR$/Data/Admin/Run/Run/MODFLOW/第194应力期" />
      <excludeFolder url="file://$MODULE_DIR$/Data/Admin/Run/Run/MODFLOW/第195应力期" />
      <excludeFolder url="file://$MODULE_DIR$/Data/Admin/Run/Run/MODFLOW/第196应力期" />
      <excludeFolder url="file://$MODULE_DIR$/Data/Admin/Run/Run/MODFLOW/第197应力期" />
      <excludeFolder url="file://$MODULE_DIR$/Data/Admin/Run/Run/MODFLOW/第198应力期" />
      <excludeFolder url="file://$MODULE_DIR$/Data/Admin/Run/Run/MODFLOW/第199应力期" />
      <excludeFolder url="file://$MODULE_DIR$/Data/Admin/Run/Run/MODFLOW/第200应力期" />
      <excludeFolder url="file://$MODULE_DIR$/Data/Admin/Run/Run/MODFLOW/第201应力期" />
      <excludeFolder url="file://$MODULE_DIR$/Data/Admin/Run/Run/MODFLOW/第202应力期" />
      <excludeFolder url="file://$MODULE_DIR$/Data/Admin/Run/Run/MODFLOW/第203应力期" />
      <excludeFolder url="file://$MODULE_DIR$/Data/Admin/Run/Run/MODFLOW/第204应力期" />
      <excludeFolder url="file://$MODULE_DIR$/Data/Admin/Run/Run/MODFLOW/第205应力期" />
      <excludeFolder url="file://$MODULE_DIR$/Data/Admin/Run/Run/MODFLOW/第206应力期" />
      <excludeFolder url="file://$MODULE_DIR$/Data/Admin/Run/Run/MODFLOW/第207应力期" />
      <excludeFolder url="file://$MODULE_DIR$/Data/Admin/Run/Run/MODFLOW/第208应力期" />
      <excludeFolder url="file://$MODULE_DIR$/Data/Admin/Run/Run/MODFLOW/第209应力期" />
      <excludeFolder url="file://$MODULE_DIR$/Data/Admin/Run/Run/MODFLOW/第20应力期" />
      <excludeFolder url="file://$MODULE_DIR$/Data/Admin/Run/Run/MODFLOW/第210应力期" />
      <excludeFolder url="file://$MODULE_DIR$/Data/Admin/Run/Run/MODFLOW/第211应力期" />
      <excludeFolder url="file://$MODULE_DIR$/Data/Admin/Run/Run/MODFLOW/第212应力期" />
      <excludeFolder url="file://$MODULE_DIR$/Data/Admin/Run/Run/MODFLOW/第213应力期" />
      <excludeFolder url="file://$MODULE_DIR$/Data/Admin/Run/Run/MODFLOW/第214应力期" />
      <excludeFolder url="file://$MODULE_DIR$/Data/Admin/Run/Run/MODFLOW/第215应力期" />
      <excludeFolder url="file://$MODULE_DIR$/Data/Admin/Run/Run/MODFLOW/第216应力期" />
      <excludeFolder url="file://$MODULE_DIR$/Data/Admin/Run/Run/MODFLOW/第217应力期" />
      <excludeFolder url="file://$MODULE_DIR$/Data/Admin/Run/Run/MODFLOW/第218应力期" />
      <excludeFolder url="file://$MODULE_DIR$/Data/Admin/Run/Run/MODFLOW/第219应力期" />
      <excludeFolder url="file://$MODULE_DIR$/Data/Admin/Run/Run/MODFLOW/第21应力期" />
      <excludeFolder url="file://$MODULE_DIR$/Data/Admin/Run/Run/MODFLOW/第220应力期" />
      <excludeFolder url="file://$MODULE_DIR$/Data/Admin/Run/Run/MODFLOW/第221应力期" />
      <excludeFolder url="file://$MODULE_DIR$/Data/Admin/Run/Run/MODFLOW/第222应力期" />
      <excludeFolder url="file://$MODULE_DIR$/Data/Admin/Run/Run/MODFLOW/第223应力期" />
      <excludeFolder url="file://$MODULE_DIR$/Data/Admin/Run/Run/MODFLOW/第224应力期" />
      <excludeFolder url="file://$MODULE_DIR$/Data/Admin/Run/Run/MODFLOW/第225应力期" />
      <excludeFolder url="file://$MODULE_DIR$/Data/Admin/Run/Run/MODFLOW/第226应力期" />
      <excludeFolder url="file://$MODULE_DIR$/Data/Admin/Run/Run/MODFLOW/第227应力期" />
      <excludeFolder url="file://$MODULE_DIR$/Data/Admin/Run/Run/MODFLOW/第228应力期" />
      <excludeFolder url="file://$MODULE_DIR$/Data/Admin/Run/Run/MODFLOW/第229应力期" />
      <excludeFolder url="file://$MODULE_DIR$/Data/Admin/Run/Run/MODFLOW/第22应力期" />
      <excludeFolder url="file://$MODULE_DIR$/Data/Admin/Run/Run/MODFLOW/第230应力期" />
      <excludeFolder url="file://$MODULE_DIR$/Data/Admin/Run/Run/MODFLOW/第231应力期" />
      <excludeFolder url="file://$MODULE_DIR$/Data/Admin/Run/Run/MODFLOW/第232应力期" />
      <excludeFolder url="file://$MODULE_DIR$/Data/Admin/Run/Run/MODFLOW/第233应力期" />
      <excludeFolder url="file://$MODULE_DIR$/Data/Admin/Run/Run/MODFLOW/第234应力期" />
      <excludeFolder url="file://$MODULE_DIR$/Data/Admin/Run/Run/MODFLOW/第235应力期" />
      <excludeFolder url="file://$MODULE_DIR$/Data/Admin/Run/Run/MODFLOW/第236应力期" />
      <excludeFolder url="file://$MODULE_DIR$/Data/Admin/Run/Run/MODFLOW/第237应力期" />
      <excludeFolder url="file://$MODULE_DIR$/Data/Admin/Run/Run/MODFLOW/第238应力期" />
      <excludeFolder url="file://$MODULE_DIR$/Data/Admin/Run/Run/MODFLOW/第239应力期" />
      <excludeFolder url="file://$MODULE_DIR$/Data/Admin/Run/Run/MODFLOW/第23应力期" />
      <excludeFolder url="file://$MODULE_DIR$/Data/Admin/Run/Run/MODFLOW/第240应力期" />
      <excludeFolder url="file://$MODULE_DIR$/Data/Admin/Run/Run/MODFLOW/第241应力期" />
      <excludeFolder url="file://$MODULE_DIR$/Data/Admin/Run/Run/MODFLOW/第242应力期" />
      <excludeFolder url="file://$MODULE_DIR$/Data/Admin/Run/Run/MODFLOW/第243应力期" />
      <excludeFolder url="file://$MODULE_DIR$/Data/Admin/Run/Run/MODFLOW/第244应力期" />
      <excludeFolder url="file://$MODULE_DIR$/Data/Admin/Run/Run/MODFLOW/第245应力期" />
      <excludeFolder url="file://$MODULE_DIR$/Data/Admin/Run/Run/MODFLOW/第246应力期" />
      <excludeFolder url="file://$MODULE_DIR$/Data/Admin/Run/Run/MODFLOW/第247应力期" />
      <excludeFolder url="file://$MODULE_DIR$/Data/Admin/Run/Run/MODFLOW/第248应力期" />
      <excludeFolder url="file://$MODULE_DIR$/Data/Admin/Run/Run/MODFLOW/第249应力期" />
      <excludeFolder url="file://$MODULE_DIR$/Data/Admin/Run/Run/MODFLOW/第24应力期" />
      <excludeFolder url="file://$MODULE_DIR$/Data/Admin/Run/Run/MODFLOW/第250应力期" />
      <excludeFolder url="file://$MODULE_DIR$/Data/Admin/Run/Run/MODFLOW/第251应力期" />
      <excludeFolder url="file://$MODULE_DIR$/Data/Admin/Run/Run/MODFLOW/第252应力期" />
      <excludeFolder url="file://$MODULE_DIR$/Data/Admin/Run/Run/MODFLOW/第253应力期" />
      <excludeFolder url="file://$MODULE_DIR$/Data/Admin/Run/Run/MODFLOW/第254应力期" />
      <excludeFolder url="file://$MODULE_DIR$/Data/Admin/Run/Run/MODFLOW/第255应力期" />
      <excludeFolder url="file://$MODULE_DIR$/Data/Admin/Run/Run/MODFLOW/第256应力期" />
      <excludeFolder url="file://$MODULE_DIR$/Data/Admin/Run/Run/MODFLOW/第257应力期" />
      <excludeFolder url="file://$MODULE_DIR$/Data/Admin/Run/Run/MODFLOW/第258应力期" />
      <excludeFolder url="file://$MODULE_DIR$/Data/Admin/Run/Run/MODFLOW/第259应力期" />
      <excludeFolder url="file://$MODULE_DIR$/Data/Admin/Run/Run/MODFLOW/第25应力期" />
      <excludeFolder url="file://$MODULE_DIR$/Data/Admin/Run/Run/MODFLOW/第260应力期" />
      <excludeFolder url="file://$MODULE_DIR$/Data/Admin/Run/Run/MODFLOW/第261应力期" />
      <excludeFolder url="file://$MODULE_DIR$/Data/Admin/Run/Run/MODFLOW/第262应力期" />
      <excludeFolder url="file://$MODULE_DIR$/Data/Admin/Run/Run/MODFLOW/第263应力期" />
      <excludeFolder url="file://$MODULE_DIR$/Data/Admin/Run/Run/MODFLOW/第264应力期" />
      <excludeFolder url="file://$MODULE_DIR$/Data/Admin/Run/Run/MODFLOW/第265应力期" />
      <excludeFolder url="file://$MODULE_DIR$/Data/Admin/Run/Run/MODFLOW/第266应力期" />
      <excludeFolder url="file://$MODULE_DIR$/Data/Admin/Run/Run/MODFLOW/第267应力期" />
      <excludeFolder url="file://$MODULE_DIR$/Data/Admin/Run/Run/MODFLOW/第268应力期" />
      <excludeFolder url="file://$MODULE_DIR$/Data/Admin/Run/Run/MODFLOW/第269应力期" />
      <excludeFolder url="file://$MODULE_DIR$/Data/Admin/Run/Run/MODFLOW/第26应力期" />
      <excludeFolder url="file://$MODULE_DIR$/Data/Admin/Run/Run/MODFLOW/第270应力期" />
      <excludeFolder url="file://$MODULE_DIR$/Data/Admin/Run/Run/MODFLOW/第271应力期" />
      <excludeFolder url="file://$MODULE_DIR$/Data/Admin/Run/Run/MODFLOW/第272应力期" />
      <excludeFolder url="file://$MODULE_DIR$/Data/Admin/Run/Run/MODFLOW/第273应力期" />
      <excludeFolder url="file://$MODULE_DIR$/Data/Admin/Run/Run/MODFLOW/第274应力期" />
      <excludeFolder url="file://$MODULE_DIR$/Data/Admin/Run/Run/MODFLOW/第275应力期" />
      <excludeFolder url="file://$MODULE_DIR$/Data/Admin/Run/Run/MODFLOW/第276应力期" />
      <excludeFolder url="file://$MODULE_DIR$/Data/Admin/Run/Run/MODFLOW/第277应力期" />
      <excludeFolder url="file://$MODULE_DIR$/Data/Admin/Run/Run/MODFLOW/第278应力期" />
      <excludeFolder url="file://$MODULE_DIR$/Data/Admin/Run/Run/MODFLOW/第279应力期" />
      <excludeFolder url="file://$MODULE_DIR$/Data/Admin/Run/Run/MODFLOW/第27应力期" />
      <excludeFolder url="file://$MODULE_DIR$/Data/Admin/Run/Run/MODFLOW/第280应力期" />
      <excludeFolder url="file://$MODULE_DIR$/Data/Admin/Run/Run/MODFLOW/第281应力期" />
      <excludeFolder url="file://$MODULE_DIR$/Data/Admin/Run/Run/MODFLOW/第282应力期" />
      <excludeFolder url="file://$MODULE_DIR$/Data/Admin/Run/Run/MODFLOW/第283应力期" />
      <excludeFolder url="file://$MODULE_DIR$/Data/Admin/Run/Run/MODFLOW/第284应力期" />
      <excludeFolder url="file://$MODULE_DIR$/Data/Admin/Run/Run/MODFLOW/第285应力期" />
      <excludeFolder url="file://$MODULE_DIR$/Data/Admin/Run/Run/MODFLOW/第286应力期" />
      <excludeFolder url="file://$MODULE_DIR$/Data/Admin/Run/Run/MODFLOW/第287应力期" />
      <excludeFolder url="file://$MODULE_DIR$/Data/Admin/Run/Run/MODFLOW/第288应力期" />
      <excludeFolder url="file://$MODULE_DIR$/Data/Admin/Run/Run/MODFLOW/第289应力期" />
      <excludeFolder url="file://$MODULE_DIR$/Data/Admin/Run/Run/MODFLOW/第28应力期" />
      <excludeFolder url="file://$MODULE_DIR$/Data/Admin/Run/Run/MODFLOW/第290应力期" />
      <excludeFolder url="file://$MODULE_DIR$/Data/Admin/Run/Run/MODFLOW/第291应力期" />
      <excludeFolder url="file://$MODULE_DIR$/Data/Admin/Run/Run/MODFLOW/第292应力期" />
      <excludeFolder url="file://$MODULE_DIR$/Data/Admin/Run/Run/MODFLOW/第293应力期" />
      <excludeFolder url="file://$MODULE_DIR$/Data/Admin/Run/Run/MODFLOW/第294应力期" />
      <excludeFolder url="file://$MODULE_DIR$/Data/Admin/Run/Run/MODFLOW/第295应力期" />
      <excludeFolder url="file://$MODULE_DIR$/Data/Admin/Run/Run/MODFLOW/第296应力期" />
      <excludeFolder url="file://$MODULE_DIR$/Data/Admin/Run/Run/MODFLOW/第297应力期" />
      <excludeFolder url="file://$MODULE_DIR$/Data/Admin/Run/Run/MODFLOW/第298应力期" />
      <excludeFolder url="file://$MODULE_DIR$/Data/Admin/Run/Run/MODFLOW/第299应力期" />
      <excludeFolder url="file://$MODULE_DIR$/Data/Admin/Run/Run/MODFLOW/第29应力期" />
      <excludeFolder url="file://$MODULE_DIR$/Data/Admin/Run/Run/MODFLOW/第300应力期" />
      <excludeFolder url="file://$MODULE_DIR$/Data/Admin/Run/Run/MODFLOW/第301应力期" />
      <excludeFolder url="file://$MODULE_DIR$/Data/Admin/Run/Run/MODFLOW/第302应力期" />
      <excludeFolder url="file://$MODULE_DIR$/Data/Admin/Run/Run/MODFLOW/第303应力期" />
      <excludeFolder url="file://$MODULE_DIR$/Data/Admin/Run/Run/MODFLOW/第304应力期" />
      <excludeFolder url="file://$MODULE_DIR$/Data/Admin/Run/Run/MODFLOW/第305应力期" />
      <excludeFolder url="file://$MODULE_DIR$/Data/Admin/Run/Run/MODFLOW/第306应力期" />
      <excludeFolder url="file://$MODULE_DIR$/Data/Admin/Run/Run/MODFLOW/第307应力期" />
      <excludeFolder url="file://$MODULE_DIR$/Data/Admin/Run/Run/MODFLOW/第308应力期" />
      <excludeFolder url="file://$MODULE_DIR$/Data/Admin/Run/Run/MODFLOW/第309应力期" />
      <excludeFolder url="file://$MODULE_DIR$/Data/Admin/Run/Run/MODFLOW/第30应力期" />
      <excludeFolder url="file://$MODULE_DIR$/Data/Admin/Run/Run/MODFLOW/第310应力期" />
      <excludeFolder url="file://$MODULE_DIR$/Data/Admin/Run/Run/MODFLOW/第311应力期" />
      <excludeFolder url="file://$MODULE_DIR$/Data/Admin/Run/Run/MODFLOW/第312应力期" />
      <excludeFolder url="file://$MODULE_DIR$/Data/Admin/Run/Run/MODFLOW/第313应力期" />
      <excludeFolder url="file://$MODULE_DIR$/Data/Admin/Run/Run/MODFLOW/第314应力期" />
      <excludeFolder url="file://$MODULE_DIR$/Data/Admin/Run/Run/MODFLOW/第315应力期" />
      <excludeFolder url="file://$MODULE_DIR$/Data/Admin/Run/Run/MODFLOW/第316应力期" />
      <excludeFolder url="file://$MODULE_DIR$/Data/Admin/Run/Run/MODFLOW/第317应力期" />
      <excludeFolder url="file://$MODULE_DIR$/Data/Admin/Run/Run/MODFLOW/第318应力期" />
      <excludeFolder url="file://$MODULE_DIR$/Data/Admin/Run/Run/MODFLOW/第319应力期" />
      <excludeFolder url="file://$MODULE_DIR$/Data/Admin/Run/Run/MODFLOW/第31应力期" />
      <excludeFolder url="file://$MODULE_DIR$/Data/Admin/Run/Run/MODFLOW/第320应力期" />
      <excludeFolder url="file://$MODULE_DIR$/Data/Admin/Run/Run/MODFLOW/第321应力期" />
      <excludeFolder url="file://$MODULE_DIR$/Data/Admin/Run/Run/MODFLOW/第322应力期" />
      <excludeFolder url="file://$MODULE_DIR$/Data/Admin/Run/Run/MODFLOW/第323应力期" />
      <excludeFolder url="file://$MODULE_DIR$/Data/Admin/Run/Run/MODFLOW/第324应力期" />
      <excludeFolder url="file://$MODULE_DIR$/Data/Admin/Run/Run/MODFLOW/第325应力期" />
      <excludeFolder url="file://$MODULE_DIR$/Data/Admin/Run/Run/MODFLOW/第326应力期" />
      <excludeFolder url="file://$MODULE_DIR$/Data/Admin/Run/Run/MODFLOW/第327应力期" />
      <excludeFolder url="file://$MODULE_DIR$/Data/Admin/Run/Run/MODFLOW/第328应力期" />
      <excludeFolder url="file://$MODULE_DIR$/Data/Admin/Run/Run/MODFLOW/第329应力期" />
      <excludeFolder url="file://$MODULE_DIR$/Data/Admin/Run/Run/MODFLOW/第32应力期" />
      <excludeFolder url="file://$MODULE_DIR$/Data/Admin/Run/Run/MODFLOW/第330应力期" />
      <excludeFolder url="file://$MODULE_DIR$/Data/Admin/Run/Run/MODFLOW/第331应力期" />
      <excludeFolder url="file://$MODULE_DIR$/Data/Admin/Run/Run/MODFLOW/第332应力期" />
      <excludeFolder url="file://$MODULE_DIR$/Data/Admin/Run/Run/MODFLOW/第333应力期" />
      <excludeFolder url="file://$MODULE_DIR$/Data/Admin/Run/Run/MODFLOW/第334应力期" />
      <excludeFolder url="file://$MODULE_DIR$/Data/Admin/Run/Run/MODFLOW/第335应力期" />
      <excludeFolder url="file://$MODULE_DIR$/Data/Admin/Run/Run/MODFLOW/第336应力期" />
      <excludeFolder url="file://$MODULE_DIR$/Data/Admin/Run/Run/MODFLOW/第337应力期" />
      <excludeFolder url="file://$MODULE_DIR$/Data/Admin/Run/Run/MODFLOW/第338应力期" />
      <excludeFolder url="file://$MODULE_DIR$/Data/Admin/Run/Run/MODFLOW/第339应力期" />
      <excludeFolder url="file://$MODULE_DIR$/Data/Admin/Run/Run/MODFLOW/第33应力期" />
      <excludeFolder url="file://$MODULE_DIR$/Data/Admin/Run/Run/MODFLOW/第340应力期" />
      <excludeFolder url="file://$MODULE_DIR$/Data/Admin/Run/Run/MODFLOW/第341应力期" />
      <excludeFolder url="file://$MODULE_DIR$/Data/Admin/Run/Run/MODFLOW/第342应力期" />
      <excludeFolder url="file://$MODULE_DIR$/Data/Admin/Run/Run/MODFLOW/第343应力期" />
      <excludeFolder url="file://$MODULE_DIR$/Data/Admin/Run/Run/MODFLOW/第344应力期" />
      <excludeFolder url="file://$MODULE_DIR$/Data/Admin/Run/Run/MODFLOW/第345应力期" />
      <excludeFolder url="file://$MODULE_DIR$/Data/Admin/Run/Run/MODFLOW/第346应力期" />
      <excludeFolder url="file://$MODULE_DIR$/Data/Admin/Run/Run/MODFLOW/第347应力期" />
      <excludeFolder url="file://$MODULE_DIR$/Data/Admin/Run/Run/MODFLOW/第348应力期" />
      <excludeFolder url="file://$MODULE_DIR$/Data/Admin/Run/Run/MODFLOW/第349应力期" />
      <excludeFolder url="file://$MODULE_DIR$/Data/Admin/Run/Run/MODFLOW/第34应力期" />
      <excludeFolder url="file://$MODULE_DIR$/Data/Admin/Run/Run/MODFLOW/第350应力期" />
      <excludeFolder url="file://$MODULE_DIR$/Data/Admin/Run/Run/MODFLOW/第351应力期" />
      <excludeFolder url="file://$MODULE_DIR$/Data/Admin/Run/Run/MODFLOW/第352应力期" />
      <excludeFolder url="file://$MODULE_DIR$/Data/Admin/Run/Run/MODFLOW/第353应力期" />
      <excludeFolder url="file://$MODULE_DIR$/Data/Admin/Run/Run/MODFLOW/第354应力期" />
      <excludeFolder url="file://$MODULE_DIR$/Data/Admin/Run/Run/MODFLOW/第355应力期" />
      <excludeFolder url="file://$MODULE_DIR$/Data/Admin/Run/Run/MODFLOW/第356应力期" />
      <excludeFolder url="file://$MODULE_DIR$/Data/Admin/Run/Run/MODFLOW/第357应力期" />
      <excludeFolder url="file://$MODULE_DIR$/Data/Admin/Run/Run/MODFLOW/第358应力期" />
      <excludeFolder url="file://$MODULE_DIR$/Data/Admin/Run/Run/MODFLOW/第359应力期" />
      <excludeFolder url="file://$MODULE_DIR$/Data/Admin/Run/Run/MODFLOW/第35应力期" />
      <excludeFolder url="file://$MODULE_DIR$/Data/Admin/Run/Run/MODFLOW/第360应力期" />
      <excludeFolder url="file://$MODULE_DIR$/Data/Admin/Run/Run/MODFLOW/第361应力期" />
      <excludeFolder url="file://$MODULE_DIR$/Data/Admin/Run/Run/MODFLOW/第362应力期" />
      <excludeFolder url="file://$MODULE_DIR$/Data/Admin/Run/Run/MODFLOW/第363应力期" />
      <excludeFolder url="file://$MODULE_DIR$/Data/Admin/Run/Run/MODFLOW/第364应力期" />
      <excludeFolder url="file://$MODULE_DIR$/Data/Admin/Run/Run/MODFLOW/第365应力期" />
      <excludeFolder url="file://$MODULE_DIR$/Data/Admin/Run/Run/MODFLOW/第36应力期" />
      <excludeFolder url="file://$MODULE_DIR$/Data/Admin/Run/Run/MODFLOW/第37应力期" />
      <excludeFolder url="file://$MODULE_DIR$/Data/Admin/Run/Run/MODFLOW/第38应力期" />
      <excludeFolder url="file://$MODULE_DIR$/Data/Admin/Run/Run/MODFLOW/第39应力期" />
      <excludeFolder url="file://$MODULE_DIR$/Data/Admin/Run/Run/MODFLOW/第40应力期" />
      <excludeFolder url="file://$MODULE_DIR$/Data/Admin/Run/Run/MODFLOW/第41应力期" />
      <excludeFolder url="file://$MODULE_DIR$/Data/Admin/Run/Run/MODFLOW/第42应力期" />
      <excludeFolder url="file://$MODULE_DIR$/Data/Admin/Run/Run/MODFLOW/第43应力期" />
      <excludeFolder url="file://$MODULE_DIR$/Data/Admin/Run/Run/MODFLOW/第44应力期" />
      <excludeFolder url="file://$MODULE_DIR$/Data/Admin/Run/Run/MODFLOW/第45应力期" />
      <excludeFolder url="file://$MODULE_DIR$/Data/Admin/Run/Run/MODFLOW/第46应力期" />
      <excludeFolder url="file://$MODULE_DIR$/Data/Admin/Run/Run/MODFLOW/第47应力期" />
      <excludeFolder url="file://$MODULE_DIR$/Data/Admin/Run/Run/MODFLOW/第48应力期" />
      <excludeFolder url="file://$MODULE_DIR$/Data/Admin/Run/Run/MODFLOW/第49应力期" />
      <excludeFolder url="file://$MODULE_DIR$/Data/Admin/Run/Run/MODFLOW/第50应力期" />
      <excludeFolder url="file://$MODULE_DIR$/Data/Admin/Run/Run/MODFLOW/第51应力期" />
      <excludeFolder url="file://$MODULE_DIR$/Data/Admin/Run/Run/MODFLOW/第52应力期" />
      <excludeFolder url="file://$MODULE_DIR$/Data/Admin/Run/Run/MODFLOW/第53应力期" />
      <excludeFolder url="file://$MODULE_DIR$/Data/Admin/Run/Run/MODFLOW/第54应力期" />
      <excludeFolder url="file://$MODULE_DIR$/Data/Admin/Run/Run/MODFLOW/第55应力期" />
      <excludeFolder url="file://$MODULE_DIR$/Data/Admin/Run/Run/MODFLOW/第56应力期" />
      <excludeFolder url="file://$MODULE_DIR$/Data/Admin/Run/Run/MODFLOW/第57应力期" />
      <excludeFolder url="file://$MODULE_DIR$/Data/Admin/Run/Run/MODFLOW/第58应力期" />
      <excludeFolder url="file://$MODULE_DIR$/Data/Admin/Run/Run/MODFLOW/第59应力期" />
      <excludeFolder url="file://$MODULE_DIR$/Data/Admin/Run/Run/MODFLOW/第60应力期" />
      <excludeFolder url="file://$MODULE_DIR$/Data/Admin/Run/Run/MODFLOW/第61应力期" />
      <excludeFolder url="file://$MODULE_DIR$/Data/Admin/Run/Run/MODFLOW/第62应力期" />
      <excludeFolder url="file://$MODULE_DIR$/Data/Admin/Run/Run/MODFLOW/第63应力期" />
      <excludeFolder url="file://$MODULE_DIR$/Data/Admin/Run/Run/MODFLOW/第64应力期" />
      <excludeFolder url="file://$MODULE_DIR$/Data/Admin/Run/Run/MODFLOW/第65应力期" />
      <excludeFolder url="file://$MODULE_DIR$/Data/Admin/Run/Run/MODFLOW/第66应力期" />
      <excludeFolder url="file://$MODULE_DIR$/Data/Admin/Run/Run/MODFLOW/第67应力期" />
      <excludeFolder url="file://$MODULE_DIR$/Data/Admin/Run/Run/MODFLOW/第68应力期" />
      <excludeFolder url="file://$MODULE_DIR$/Data/Admin/Run/Run/MODFLOW/第69应力期" />
      <excludeFolder url="file://$MODULE_DIR$/Data/Admin/Run/Run/MODFLOW/第70应力期" />
      <excludeFolder url="file://$MODULE_DIR$/Data/Admin/Run/Run/MODFLOW/第71应力期" />
      <excludeFolder url="file://$MODULE_DIR$/Data/Admin/Run/Run/MODFLOW/第72应力期" />
      <excludeFolder url="file://$MODULE_DIR$/Data/Admin/Run/Run/MODFLOW/第73应力期" />
      <excludeFolder url="file://$MODULE_DIR$/Data/Admin/Run/Run/MODFLOW/第74应力期" />
      <excludeFolder url="file://$MODULE_DIR$/Data/Admin/Run/Run/MODFLOW/第75应力期" />
      <excludeFolder url="file://$MODULE_DIR$/Data/Admin/Run/Run/MODFLOW/第76应力期" />
      <excludeFolder url="file://$MODULE_DIR$/Data/Admin/Run/Run/MODFLOW/第77应力期" />
      <excludeFolder url="file://$MODULE_DIR$/Data/Admin/Run/Run/MODFLOW/第78应力期" />
      <excludeFolder url="file://$MODULE_DIR$/Data/Admin/Run/Run/MODFLOW/第79应力期" />
      <excludeFolder url="file://$MODULE_DIR$/Data/Admin/Run/Run/MODFLOW/第80应力期" />
      <excludeFolder url="file://$MODULE_DIR$/Data/Admin/Run/Run/MODFLOW/第81应力期" />
      <excludeFolder url="file://$MODULE_DIR$/Data/Admin/Run/Run/MODFLOW/第82应力期" />
      <excludeFolder url="file://$MODULE_DIR$/Data/Admin/Run/Run/MODFLOW/第83应力期" />
      <excludeFolder url="file://$MODULE_DIR$/Data/Admin/Run/Run/MODFLOW/第84应力期" />
      <excludeFolder url="file://$MODULE_DIR$/Data/Admin/Run/Run/MODFLOW/第85应力期" />
      <excludeFolder url="file://$MODULE_DIR$/Data/Admin/Run/Run/MODFLOW/第86应力期" />
      <excludeFolder url="file://$MODULE_DIR$/Data/Admin/Run/Run/MODFLOW/第87应力期" />
      <excludeFolder url="file://$MODULE_DIR$/Data/Admin/Run/Run/MODFLOW/第88应力期" />
      <excludeFolder url="file://$MODULE_DIR$/Data/Admin/Run/Run/MODFLOW/第89应力期" />
      <excludeFolder url="file://$MODULE_DIR$/Data/Admin/Run/Run/MODFLOW/第90应力期" />
      <excludeFolder url="file://$MODULE_DIR$/Data/Admin/Run/Run/MODFLOW/第91应力期" />
      <excludeFolder url="file://$MODULE_DIR$/Data/Admin/Run/Run/MODFLOW/第92应力期" />
      <excludeFolder url="file://$MODULE_DIR$/Data/Admin/Run/Run/MODFLOW/第93应力期" />
      <excludeFolder url="file://$MODULE_DIR$/Data/Admin/Run/Run/MODFLOW/第94应力期" />
      <excludeFolder url="file://$MODULE_DIR$/Data/Admin/Run/Run/MODFLOW/第95应力期" />
      <excludeFolder url="file://$MODULE_DIR$/Data/Admin/Run/Run/MODFLOW/第96应力期" />
      <excludeFolder url="file://$MODULE_DIR$/Data/Admin/Run/Run/MODFLOW/第97应力期" />
      <excludeFolder url="file://$MODULE_DIR$/Data/Admin/Run/Run/MODFLOW/第98应力期" />